/*--------------------------------*- C++ -*----------------------------------*\
| AeroSynthX-generated OpenFOAM dictionary                                    |
\*---------------------------------------------------------------------------*/
FoamFile
{
    version     2.0;
    format      ascii;
    class       volVectorField;
    object      U;
}
// * * * * * * * * * * * * * * * * * * * * * * * * * * * * * * * * * * * * * //

dimensions      [0 1 -1 0 0 0 0];

internalField   uniform ({{ ux }} {{ uy }} {{ uz }});

boundaryField
{
    inlet
    {
        type            fixedValue;
        value           uniform ({{ ux }} {{ uy }} {{ uz }});
    }
    outlet
    {
        type            zeroGradient;
    }
    top
    {
        type            slip;
    }
    bottom
    {
        type            slip;
    }
    frontAndBack
    {
        type            empty;
    }
}

// ************************************************************************* //
