/*--------------------------------*- C++ -*----------------------------------*\
| AeroSynthX-generated OpenFOAM dictionary                                    |
\*---------------------------------------------------------------------------*/
FoamFile
{
    version     2.0;
    format      ascii;
    class       dictionary;
    object      blockMeshDict;
}
// * * * * * * * * * * * * * * * * * * * * * * * * * * * * * * * * * * * * * //

scale 1;

vertices
(
    ( -8 -8 -0.04 )
    ( 16 -8 -0.04 )
    ( 16 8 -0.04 )
    ( -8 8 -0.04 )
    ( -8 -8 0.04 )
    ( 16 -8 0.04 )
    ( 16 8 0.04 )
    ( -8 8 0.04 )
);

blocks
(
    hex (0 1 2 3 4 5 6 7) (60 40 1) simpleGrading (1 1 1)
);

edges
(
);

boundary
(
    inlet
    {
        type patch;
        faces ( (0 4 7 3) );
    }
    outlet
    {
        type patch;
        faces ( (1 2 6 5) );
    }
    bottom
    {
        type patch;
        faces ( (0 1 5 4) );
    }
    top
    {
        type patch;
        faces ( (3 7 6 2) );
    }
    frontAndBack
    {
        type empty;
        faces
        (
            (0 3 2 1)
            (4 5 6 7)
        );
    }
);

mergePatchPairs
(
);

// ************************************************************************* //
